Circuit: * C:\Users\lthw148\Documents\GitHub\ltspice-psoc\Draft1.asc

Direct Newton iteration for .op point succeeded.

Date: Tue Oct 01 14:22:46 2024
Total elapsed time: 0.204 seconds.

tnom = 27
temp = 27
method = modified trap
totiter = 80048
traniter = 80030
tranpoints = 40016
accept = 24018
rejected = 15998
matrix size = 12
fillins = 2
solver = Normal
Matrix Compiler1: 530 bytes object code size  0.1/0.1/[0.0]
Matrix Compiler2: off  [0.1]/0.1/0.1

